/*---------------------------------------------------------------------------*\
| =========                 |                                                 |
| \\      /  F ield         | OpenFOAM: The Open Source CFD Toolbox           |
|  \\    /   O peration     | Version:  1.4                                   |
|   \\  /    A nd           | Web:      http://www.openfoam.org               |
|    \\/     M anipulation  |                                                 |
\*---------------------------------------------------------------------------*/

FoamFile
{
    version         2.0;
    format          ascii;

    root            "";
    case            "";
    instance        "";
    local           "";

    class           dictionary;
    object          blockMeshDict;
}

// * * * * * * * * * * * * * * * * * * * * * * * * * * * * * * * * * * * * * //
                         
convertToMeters 1;


vertices        
(
	(-349.5 0 -160)
	(-12.5 0 -160)
	(12.5 0 -160)
	(349.5 0 -160)

	(-349.5 0 -5.0)
	(-12.5 0 -5.0)
	(12.5 0 -5.0)
	(349.5 0 -5.0)

	(-349.5 0 5.0)
	(-12.5 0 5.0)
	(12.5 0 5.0)
	(349.5 0 5.0)

	(-349.5 0 25)
	(-12.5 0 25)
	(12.5 0 25)
	(349.5 0 25)

	(-349.5 0.05 -160)
	(-12.5 0.05 -160)
	(12.5 0.05 -160)
	(349.5 0.05 -160)

	(-349.5 0.05 -5.0)
	(-12.5 0.05 -5.0)
	(12.5 0.05 -5.0)
	(349.5 0.05 -5.0)

	(-349.5 0.05 5.0)
	(-12.5 0.05 5.0)
	(12.5 0.05 5.0)
	(349.5 0.05 5.0)

	(-349.5 0.05 25)
	(-12.5 0.05 25)
	(12.5 0.05 25)
	(349.5 0.05 25)

	






);

blocks          
(
    hex (0 1 17 16 4 5 21 20) (68 1 19) simpleGrading (1 1 0.395733957017)
    hex (1 2 18 17 5 6 22 21) (5 1 19) simpleGrading (1 1 0.395733957017)
    hex (2 3 19 18 6 7 23 22) (21 1 19) simpleGrading (7.40024994426 1 0.395733957017)

    hex (4 5 21 20 8 9 25 24) (68 1 2) simpleGrading (1 1 1)
    hex (5 6 22 21 9 10 26 25) (5 1 2) simpleGrading (1 1 1)
    hex (6 7 23 22 10 11 27 26) (21 1 2) simpleGrading (7.40024994426 1 1)

    hex (8 9 25 24 12 13 29 28) (68 1 4) simpleGrading (1 1 2.0736)
    hex (9 10 26 25 13 14 30 29) (5 1 4) simpleGrading (1 1 2.0736)
    hex (10 11 27 26 14 15 31 30) (21 1 4) simpleGrading (7.40024994426 1 2.0736)

);

edges           
(
);
boundary
(
    front
    {
        type empty;
        faces
        (
        (0 1 5 4)
	(1 2 6 5)
	(2 3 7 6)
	(4 5 9 8)
	(5 6 10 9)
	(6 7 11 10)
	(8 9 13 12)
	(9 10 14 13)
	(10 11 15 14)
        );
    }

    back
    {
        type empty;
        faces
        (
	(16 20 21 17)
	(17 21 22 18)
	(18 22 23 19)
	(20 24 25 21)
	(21 25 26 22)
	(22 26 27 23)
	(24 28 29 25)
	(25 29 30 26)
	(26 30 31 27)
        );
    }

    inlet
    {
        type patch;
        faces
        (
	(0 4 20 16)
	(4 8 24 20)
	(8 12 28 24)
        );
    }

    outlet
    {
        type patch;
        faces
	(
 	(3 19 23 7)
	(7 23 27 11)
	(11 27 31 15)
        );
    }

    bottom
    {
        type wall;
        faces
	(
	(0 16 17 1)
	(1 17 18 2)
	(2 18 19 3)
        );
    }

    atmosphere
    {
        type patch;
        faces
	(
	(12 13 29 28)
	(13 14 30 29)
	(14 15 31 30)
        );
    }



);


mergePatchPairs
(

);

// ************************************************************************* //
