/*--------------------------------*- C++ -*----------------------------------*\
| =========                 |                                                 |
| \\      /  F ield         | OpenFOAM: The Open Source CFD Toolbox           |
|  \\    /   O peration     | Version:  3.0.1                                 |
|   \\  /    A nd           | Web:      www.OpenFOAM.org                      |
|    \\/     M anipulation  |                                                 |
\*---------------------------------------------------------------------------*/
FoamFile
{
    version	2.0;
    format	ascii;
    class	dictionary;
    object	waveProperties;
}
// * * * * * * * * * * * * * * * * * * * * * * * * * * * * * * * * * * * * * //

seaLevel            0;

pName               p_rgh;

relaxationNames     ( inlet outlet );

initializationName  inlet;

externalForcing     oceanWave3D;

externalForcingCoeffs
{
    waveType            oceanWave3D;

    nIntervals          1;
    startTimes          nonuniform List<scalar>
    1
    (
        100
    );
    endTimes            nonuniform List<scalar>
    1
    (
        260.02
    );

    rampInterval        off;

    mappingZone         inlet;
    translateOpenFoamMesh ( 0 0 0 );
}

inletCoeffs
{
    waveType            externalSource;

    relaxationZone
    {
        relaxationScheme    Spatial;
        relaxationShape     Rectangular;
        beachType           Empty;
        relaxType           INLET;
        startX              ( 200 0 -70 );
        endX                ( 210 0.1 5 );
        orientation         ( 1 0 0 );
    }
}

outletCoeffs
{
    waveType            externalSource;

    relaxationZone
    {
        relaxationScheme    Spatial;
        relaxationShape     Rectangular;
        beachType           Empty;
        relaxType           OUTLET;
        startX              ( 410 0 -70 );
        endX                ( 420 0.1 5 );
        orientation         ( 1 0 0 );
    }
}



// ************************************************************************* //
