FoamFile
{
    version     2.0;
    format      ascii;
    class       dictionary;
    location    "system";
    object      controlDict;
}
// * * * * * * * * * * * * * * * * * * * * * * * * * * * * * * * * * * * * * //

application     interDyMFoam;

startFrom       startTime;

startTime       0;

stopAt          endTime;

endTime         200;

deltaT          0.01;

writeControl    adjustableRunTime;

writeInterval   1;

purgeWrite      0;

writeFormat     ascii;

writePrecision  12;

writeCompression uncompressed;

timeFormat      general;

timePrecision   6;

runTimeModifiable yes;

adjustTimeStep  no;

maxCo           1;
maxAlphaCo      1;
maxDeltaT       0.1;

functions
(

surfaceElevation
{
type            surfaceElevation;
        functionObjectLibs ( "libwaves2Foam.so" );
        
        outputControl   timeStep; // Alternative: outputTime
        outputInterval  1;
        
        // Additional output controls in waves2Foam
        // Set outputInterval = 1 and timeStep output control if surfaceSampleDeltaT is used.
        samplingStartTime 0; 
        surfaceSampleDeltaT 0.01; // Only an approximate output interval! No feedback on deltaT in the simulation
        
        setFormat raw;
        interpolationScheme cellPointFace;
        fields (alpha.water);
      sets
        (

            lineName1
            {
                type        face;
                axis        z;

                start       (-5 0 -2);
                end         (-5 0 2);
                nPoints     2000;
            } 
            lineName2
            {
                type        face;
                axis        z;

                start       (-3 0 -2);
                end         (-3 0 2);
                nPoints     2000;
            } 
            lineName3
            {
                type        face;
                axis        z;

                start       (0 0 -2);
                end         (0 0 2);
                nPoints     2000;
            } 
            lineName4
            {
                type        face;
                axis        z;

                start       (3 0 -2);
                end         (3 0 2);
                nPoints     2000;
            }
            lineName5
            {
                type        face;
                axis        z;

                start       (5 0 -2);
                end         (5 0 2);
                nPoints     2000;
            } 

            );
}

);
